
---------- Begin Simulation Statistics ----------
sim_seconds                                  0.091701                       # Number of seconds simulated
sim_ticks                                 91701357000                       # Number of ticks simulated
final_tick                                91701357000                       # Number of ticks from beginning of simulation (restored from checkpoints and never reset)
sim_freq                                 1000000000000                       # Frequency of simulated ticks
host_inst_rate                                1849494                       # Simulator instruction rate (inst/s)
host_op_rate                                  3051349                       # Simulator op (including micro ops) rate (op/s)
host_tick_rate                             3788474229                       # Simulator tick rate (ticks/s)
host_mem_usage                                 670996                       # Number of bytes of host memory used
host_seconds                                    24.21                       # Real time elapsed on the host
sim_insts                                    44767637                       # Number of instructions simulated
sim_ops                                      73858966                       # Number of ops (including micro ops) simulated
system.voltage_domain.voltage                       1                       # Voltage in Volts
system.clk_domain.clock                          1000                       # Clock period in ticks
system.mem_ctrls.pwrStateResidencyTicks::UNDEFINED  91701357000                       # Cumulative time (in ticks) in various power states
system.mem_ctrls.bytes_read::cpu.inst           47104                       # Number of bytes read from this memory
system.mem_ctrls.bytes_read::cpu.data          941056                       # Number of bytes read from this memory
system.mem_ctrls.bytes_read::total             988160                       # Number of bytes read from this memory
system.mem_ctrls.bytes_inst_read::cpu.inst        47104                       # Number of instructions bytes read from this memory
system.mem_ctrls.bytes_inst_read::total         47104                       # Number of instructions bytes read from this memory
system.mem_ctrls.bytes_written::writebacks       612224                       # Number of bytes written to this memory
system.mem_ctrls.bytes_written::total          612224                       # Number of bytes written to this memory
system.mem_ctrls.num_reads::cpu.inst              736                       # Number of read requests responded to by this memory
system.mem_ctrls.num_reads::cpu.data            14704                       # Number of read requests responded to by this memory
system.mem_ctrls.num_reads::total               15440                       # Number of read requests responded to by this memory
system.mem_ctrls.num_writes::writebacks          9566                       # Number of write requests responded to by this memory
system.mem_ctrls.num_writes::total               9566                       # Number of write requests responded to by this memory
system.mem_ctrls.bw_read::cpu.inst             513667                       # Total read bandwidth from this memory (bytes/s)
system.mem_ctrls.bw_read::cpu.data           10262182                       # Total read bandwidth from this memory (bytes/s)
system.mem_ctrls.bw_read::total              10775849                       # Total read bandwidth from this memory (bytes/s)
system.mem_ctrls.bw_inst_read::cpu.inst        513667                       # Instruction read bandwidth from this memory (bytes/s)
system.mem_ctrls.bw_inst_read::total           513667                       # Instruction read bandwidth from this memory (bytes/s)
system.mem_ctrls.bw_write::writebacks         6676281                       # Write bandwidth from this memory (bytes/s)
system.mem_ctrls.bw_write::total              6676281                       # Write bandwidth from this memory (bytes/s)
system.mem_ctrls.bw_total::writebacks         6676281                       # Total bandwidth to/from this memory (bytes/s)
system.mem_ctrls.bw_total::cpu.inst            513667                       # Total bandwidth to/from this memory (bytes/s)
system.mem_ctrls.bw_total::cpu.data          10262182                       # Total bandwidth to/from this memory (bytes/s)
system.mem_ctrls.bw_total::total             17452130                       # Total bandwidth to/from this memory (bytes/s)
system.pwrStateResidencyTicks::UNDEFINED  91701357000                       # Cumulative time (in ticks) in various power states
system.cpu_voltage_domain.voltage                   1                       # Voltage in Volts
system.cpu_clk_domain.clock                       500                       # Clock period in ticks
system.cpu.dtb.walker.pwrStateResidencyTicks::UNDEFINED  91701357000                       # Cumulative time (in ticks) in various power states
system.cpu.dtb.rdAccesses                    20998404                       # TLB accesses on read requests
system.cpu.dtb.wrAccesses                     5824776                       # TLB accesses on write requests
system.cpu.dtb.rdMisses                           231                       # TLB misses on read requests
system.cpu.dtb.wrMisses                           111                       # TLB misses on write requests
system.cpu.apic_clk_domain.clock                 8000                       # Clock period in ticks
system.cpu.interrupts.pwrStateResidencyTicks::UNDEFINED  91701357000                       # Cumulative time (in ticks) in various power states
system.cpu.itb.walker.pwrStateResidencyTicks::UNDEFINED  91701357000                       # Cumulative time (in ticks) in various power states
system.cpu.itb.rdAccesses                           0                       # TLB accesses on read requests
system.cpu.itb.wrAccesses                    59428566                       # TLB accesses on write requests
system.cpu.itb.rdMisses                             0                       # TLB misses on read requests
system.cpu.itb.wrMisses                            78                       # TLB misses on write requests
system.cpu.workload.numSyscalls                    25                       # Number of system calls
system.cpu.pwrStateResidencyTicks::ON     91701357000                       # Cumulative time (in ticks) in various power states
system.cpu.numCycles                        183402714                       # number of cpu cycles simulated
system.cpu.numWorkItemsStarted                      0                       # number of work items this cpu started
system.cpu.numWorkItemsCompleted                    0                       # number of work items this cpu completed
system.cpu.committedInsts                    44767637                       # Number of instructions committed
system.cpu.committedOps                      73858966                       # Number of ops (including micro ops) committed
system.cpu.num_int_alu_accesses              73334975                       # Number of integer alu accesses
system.cpu.num_fp_alu_accesses                   4314                       # Number of float alu accesses
system.cpu.num_vec_alu_accesses                     0                       # Number of vector alu accesses
system.cpu.num_func_calls                      945812                       # number of times a function call or return occured
system.cpu.num_conditional_control_insts      4246121                       # number of instructions that are conditional controls
system.cpu.num_int_insts                     73334975                       # number of integer instructions
system.cpu.num_fp_insts                          4314                       # number of float instructions
system.cpu.num_vec_insts                            0                       # number of vector instructions
system.cpu.num_int_register_reads           164564355                       # number of times the integer registers were read
system.cpu.num_int_register_writes           64004200                       # number of times the integer registers were written
system.cpu.num_fp_register_reads                 6414                       # number of times the floating registers were read
system.cpu.num_fp_register_writes                3205                       # number of times the floating registers were written
system.cpu.num_vec_register_reads                   0                       # number of times the vector registers were read
system.cpu.num_vec_register_writes                  0                       # number of times the vector registers were written
system.cpu.num_cc_register_reads             27729384                       # number of times the CC registers were read
system.cpu.num_cc_register_writes            24993593                       # number of times the CC registers were written
system.cpu.num_mem_refs                      26823172                       # number of memory refs
system.cpu.num_load_insts                    20998396                       # Number of load instructions
system.cpu.num_store_insts                    5824776                       # Number of store instructions
system.cpu.num_idle_cycles                          0                       # Number of idle cycles
system.cpu.num_busy_cycles                  183402714                       # Number of busy cycles
system.cpu.not_idle_fraction                        1                       # Percentage of non-idle cycles
system.cpu.idle_fraction                            0                       # Percentage of idle cycles
system.cpu.Branches                           5689980                       # Number of branches fetched
system.cpu.op_class::No_OpClass                177077      0.24%      0.24% # Class of executed instruction
system.cpu.op_class::IntAlu                  45851910     62.08%     62.32% # Class of executed instruction
system.cpu.op_class::IntMult                       15      0.00%     62.32% # Class of executed instruction
system.cpu.op_class::IntDiv                   1004199      1.36%     63.68% # Class of executed instruction
system.cpu.op_class::FloatAdd                     132      0.00%     63.68% # Class of executed instruction
system.cpu.op_class::FloatCmp                       0      0.00%     63.68% # Class of executed instruction
system.cpu.op_class::FloatCvt                       0      0.00%     63.68% # Class of executed instruction
system.cpu.op_class::FloatMult                      0      0.00%     63.68% # Class of executed instruction
system.cpu.op_class::FloatMultAcc                   0      0.00%     63.68% # Class of executed instruction
system.cpu.op_class::FloatDiv                       0      0.00%     63.68% # Class of executed instruction
system.cpu.op_class::FloatMisc                      0      0.00%     63.68% # Class of executed instruction
system.cpu.op_class::FloatSqrt                      0      0.00%     63.68% # Class of executed instruction
system.cpu.op_class::SimdAdd                      348      0.00%     63.68% # Class of executed instruction
system.cpu.op_class::SimdAddAcc                     0      0.00%     63.68% # Class of executed instruction
system.cpu.op_class::SimdAlu                      684      0.00%     63.68% # Class of executed instruction
system.cpu.op_class::SimdCmp                        0      0.00%     63.68% # Class of executed instruction
system.cpu.op_class::SimdCvt                      770      0.00%     63.68% # Class of executed instruction
system.cpu.op_class::SimdMisc                     524      0.00%     63.68% # Class of executed instruction
system.cpu.op_class::SimdMult                       0      0.00%     63.68% # Class of executed instruction
system.cpu.op_class::SimdMultAcc                    0      0.00%     63.68% # Class of executed instruction
system.cpu.op_class::SimdShift                    135      0.00%     63.68% # Class of executed instruction
system.cpu.op_class::SimdShiftAcc                   0      0.00%     63.68% # Class of executed instruction
system.cpu.op_class::SimdSqrt                       0      0.00%     63.68% # Class of executed instruction
system.cpu.op_class::SimdFloatAdd                   0      0.00%     63.68% # Class of executed instruction
system.cpu.op_class::SimdFloatAlu                   0      0.00%     63.68% # Class of executed instruction
system.cpu.op_class::SimdFloatCmp                   0      0.00%     63.68% # Class of executed instruction
system.cpu.op_class::SimdFloatCvt                   0      0.00%     63.68% # Class of executed instruction
system.cpu.op_class::SimdFloatDiv                   0      0.00%     63.68% # Class of executed instruction
system.cpu.op_class::SimdFloatMisc                  0      0.00%     63.68% # Class of executed instruction
system.cpu.op_class::SimdFloatMult                  0      0.00%     63.68% # Class of executed instruction
system.cpu.op_class::SimdFloatMultAcc               0      0.00%     63.68% # Class of executed instruction
system.cpu.op_class::SimdFloatSqrt                  0      0.00%     63.68% # Class of executed instruction
system.cpu.op_class::MemRead                 20997424     28.43%     92.11% # Class of executed instruction
system.cpu.op_class::MemWrite                 5824086      7.89%    100.00% # Class of executed instruction
system.cpu.op_class::FloatMemRead                 972      0.00%    100.00% # Class of executed instruction
system.cpu.op_class::FloatMemWrite                690      0.00%    100.00% # Class of executed instruction
system.cpu.op_class::IprAccess                      0      0.00%    100.00% # Class of executed instruction
system.cpu.op_class::InstPrefetch                   0      0.00%    100.00% # Class of executed instruction
system.cpu.op_class::total                   73858966                       # Class of executed instruction
system.cpu.dcache.tags.pwrStateResidencyTicks::UNDEFINED  91701357000                       # Cumulative time (in ticks) in various power states
system.cpu.dcache.tags.tagsinuse           511.416447                       # Cycle average of tags in use
system.cpu.dcache.tags.total_refs            26823180                       # Total number of references to valid blocks.
system.cpu.dcache.tags.sampled_refs             47028                       # Sample count of references to valid blocks.
system.cpu.dcache.tags.avg_refs            570.366165                       # Average number of references to valid blocks.
system.cpu.dcache.tags.warmup_cycle            769000                       # Cycle when the warmup percentage was hit.
system.cpu.dcache.tags.occ_blocks::cpu.data   511.416447                       # Average occupied blocks per requestor
system.cpu.dcache.tags.occ_percent::cpu.data     0.998860                       # Average percentage of cache occupancy
system.cpu.dcache.tags.occ_percent::total     0.998860                       # Average percentage of cache occupancy
system.cpu.dcache.tags.occ_task_id_blocks::1024          512                       # Occupied blocks per task id
system.cpu.dcache.tags.age_task_id_blocks_1024::0           14                       # Occupied blocks per task id
system.cpu.dcache.tags.age_task_id_blocks_1024::1           41                       # Occupied blocks per task id
system.cpu.dcache.tags.age_task_id_blocks_1024::2           34                       # Occupied blocks per task id
system.cpu.dcache.tags.age_task_id_blocks_1024::3          422                       # Occupied blocks per task id
system.cpu.dcache.tags.age_task_id_blocks_1024::4            1                       # Occupied blocks per task id
system.cpu.dcache.tags.occ_task_id_percent::1024            1                       # Percentage of cache occupancy per task id
system.cpu.dcache.tags.tag_accesses          53693388                       # Number of tag accesses
system.cpu.dcache.tags.data_accesses         53693388                       # Number of data accesses
system.cpu.dcache.pwrStateResidencyTicks::UNDEFINED  91701357000                       # Cumulative time (in ticks) in various power states
system.cpu.dcache.ReadReq_hits::cpu.data     20958471                       # number of ReadReq hits
system.cpu.dcache.ReadReq_hits::total        20958471                       # number of ReadReq hits
system.cpu.dcache.WriteReq_hits::cpu.data      5808281                       # number of WriteReq hits
system.cpu.dcache.WriteReq_hits::total        5808281                       # number of WriteReq hits
system.cpu.dcache.demand_hits::cpu.data      26766752                       # number of demand (read+write) hits
system.cpu.dcache.demand_hits::total         26766752                       # number of demand (read+write) hits
system.cpu.dcache.overall_hits::cpu.data     26766752                       # number of overall hits
system.cpu.dcache.overall_hits::total        26766752                       # number of overall hits
system.cpu.dcache.ReadReq_misses::cpu.data        39933                       # number of ReadReq misses
system.cpu.dcache.ReadReq_misses::total         39933                       # number of ReadReq misses
system.cpu.dcache.WriteReq_misses::cpu.data        16495                       # number of WriteReq misses
system.cpu.dcache.WriteReq_misses::total        16495                       # number of WriteReq misses
system.cpu.dcache.demand_misses::cpu.data        56428                       # number of demand (read+write) misses
system.cpu.dcache.demand_misses::total          56428                       # number of demand (read+write) misses
system.cpu.dcache.overall_misses::cpu.data        56428                       # number of overall misses
system.cpu.dcache.overall_misses::total         56428                       # number of overall misses
system.cpu.dcache.ReadReq_miss_latency::cpu.data   3706244500                       # number of ReadReq miss cycles
system.cpu.dcache.ReadReq_miss_latency::total   3706244500                       # number of ReadReq miss cycles
system.cpu.dcache.WriteReq_miss_latency::cpu.data   1678563000                       # number of WriteReq miss cycles
system.cpu.dcache.WriteReq_miss_latency::total   1678563000                       # number of WriteReq miss cycles
system.cpu.dcache.demand_miss_latency::cpu.data   5384807500                       # number of demand (read+write) miss cycles
system.cpu.dcache.demand_miss_latency::total   5384807500                       # number of demand (read+write) miss cycles
system.cpu.dcache.overall_miss_latency::cpu.data   5384807500                       # number of overall miss cycles
system.cpu.dcache.overall_miss_latency::total   5384807500                       # number of overall miss cycles
system.cpu.dcache.ReadReq_accesses::cpu.data     20998404                       # number of ReadReq accesses(hits+misses)
system.cpu.dcache.ReadReq_accesses::total     20998404                       # number of ReadReq accesses(hits+misses)
system.cpu.dcache.WriteReq_accesses::cpu.data      5824776                       # number of WriteReq accesses(hits+misses)
system.cpu.dcache.WriteReq_accesses::total      5824776                       # number of WriteReq accesses(hits+misses)
system.cpu.dcache.demand_accesses::cpu.data     26823180                       # number of demand (read+write) accesses
system.cpu.dcache.demand_accesses::total     26823180                       # number of demand (read+write) accesses
system.cpu.dcache.overall_accesses::cpu.data     26823180                       # number of overall (read+write) accesses
system.cpu.dcache.overall_accesses::total     26823180                       # number of overall (read+write) accesses
system.cpu.dcache.ReadReq_miss_rate::cpu.data     0.001902                       # miss rate for ReadReq accesses
system.cpu.dcache.ReadReq_miss_rate::total     0.001902                       # miss rate for ReadReq accesses
system.cpu.dcache.WriteReq_miss_rate::cpu.data     0.002832                       # miss rate for WriteReq accesses
system.cpu.dcache.WriteReq_miss_rate::total     0.002832                       # miss rate for WriteReq accesses
system.cpu.dcache.demand_miss_rate::cpu.data     0.002104                       # miss rate for demand accesses
system.cpu.dcache.demand_miss_rate::total     0.002104                       # miss rate for demand accesses
system.cpu.dcache.overall_miss_rate::cpu.data     0.002104                       # miss rate for overall accesses
system.cpu.dcache.overall_miss_rate::total     0.002104                       # miss rate for overall accesses
system.cpu.dcache.ReadReq_avg_miss_latency::cpu.data 92811.571883                       # average ReadReq miss latency
system.cpu.dcache.ReadReq_avg_miss_latency::total 92811.571883                       # average ReadReq miss latency
system.cpu.dcache.WriteReq_avg_miss_latency::cpu.data 101761.927857                       # average WriteReq miss latency
system.cpu.dcache.WriteReq_avg_miss_latency::total 101761.927857                       # average WriteReq miss latency
system.cpu.dcache.demand_avg_miss_latency::cpu.data 95427.934713                       # average overall miss latency
system.cpu.dcache.demand_avg_miss_latency::total 95427.934713                       # average overall miss latency
system.cpu.dcache.overall_avg_miss_latency::cpu.data 95427.934713                       # average overall miss latency
system.cpu.dcache.overall_avg_miss_latency::total 95427.934713                       # average overall miss latency
system.cpu.dcache.blocked_cycles::no_mshrs            0                       # number of cycles access was blocked
system.cpu.dcache.blocked_cycles::no_targets            0                       # number of cycles access was blocked
system.cpu.dcache.blocked::no_mshrs                 0                       # number of cycles access was blocked
system.cpu.dcache.blocked::no_targets               0                       # number of cycles access was blocked
system.cpu.dcache.avg_blocked_cycles::no_mshrs          nan                       # average number of cycles each access was blocked
system.cpu.dcache.avg_blocked_cycles::no_targets          nan                       # average number of cycles each access was blocked
system.cpu.dcache.writebacks::writebacks        43950                       # number of writebacks
system.cpu.dcache.writebacks::total             43950                       # number of writebacks
system.cpu.dcache.ReadReq_mshr_misses::cpu.data        39933                       # number of ReadReq MSHR misses
system.cpu.dcache.ReadReq_mshr_misses::total        39933                       # number of ReadReq MSHR misses
system.cpu.dcache.WriteReq_mshr_misses::cpu.data        16495                       # number of WriteReq MSHR misses
system.cpu.dcache.WriteReq_mshr_misses::total        16495                       # number of WriteReq MSHR misses
system.cpu.dcache.demand_mshr_misses::cpu.data        56428                       # number of demand (read+write) MSHR misses
system.cpu.dcache.demand_mshr_misses::total        56428                       # number of demand (read+write) MSHR misses
system.cpu.dcache.overall_mshr_misses::cpu.data        56428                       # number of overall MSHR misses
system.cpu.dcache.overall_mshr_misses::total        56428                       # number of overall MSHR misses
system.cpu.dcache.ReadReq_mshr_miss_latency::cpu.data   3666311500                       # number of ReadReq MSHR miss cycles
system.cpu.dcache.ReadReq_mshr_miss_latency::total   3666311500                       # number of ReadReq MSHR miss cycles
system.cpu.dcache.WriteReq_mshr_miss_latency::cpu.data   1662068000                       # number of WriteReq MSHR miss cycles
system.cpu.dcache.WriteReq_mshr_miss_latency::total   1662068000                       # number of WriteReq MSHR miss cycles
system.cpu.dcache.demand_mshr_miss_latency::cpu.data   5328379500                       # number of demand (read+write) MSHR miss cycles
system.cpu.dcache.demand_mshr_miss_latency::total   5328379500                       # number of demand (read+write) MSHR miss cycles
system.cpu.dcache.overall_mshr_miss_latency::cpu.data   5328379500                       # number of overall MSHR miss cycles
system.cpu.dcache.overall_mshr_miss_latency::total   5328379500                       # number of overall MSHR miss cycles
system.cpu.dcache.ReadReq_mshr_miss_rate::cpu.data     0.001902                       # mshr miss rate for ReadReq accesses
system.cpu.dcache.ReadReq_mshr_miss_rate::total     0.001902                       # mshr miss rate for ReadReq accesses
system.cpu.dcache.WriteReq_mshr_miss_rate::cpu.data     0.002832                       # mshr miss rate for WriteReq accesses
system.cpu.dcache.WriteReq_mshr_miss_rate::total     0.002832                       # mshr miss rate for WriteReq accesses
system.cpu.dcache.demand_mshr_miss_rate::cpu.data     0.002104                       # mshr miss rate for demand accesses
system.cpu.dcache.demand_mshr_miss_rate::total     0.002104                       # mshr miss rate for demand accesses
system.cpu.dcache.overall_mshr_miss_rate::cpu.data     0.002104                       # mshr miss rate for overall accesses
system.cpu.dcache.overall_mshr_miss_rate::total     0.002104                       # mshr miss rate for overall accesses
system.cpu.dcache.ReadReq_avg_mshr_miss_latency::cpu.data 91811.571883                       # average ReadReq mshr miss latency
system.cpu.dcache.ReadReq_avg_mshr_miss_latency::total 91811.571883                       # average ReadReq mshr miss latency
system.cpu.dcache.WriteReq_avg_mshr_miss_latency::cpu.data 100761.927857                       # average WriteReq mshr miss latency
system.cpu.dcache.WriteReq_avg_mshr_miss_latency::total 100761.927857                       # average WriteReq mshr miss latency
system.cpu.dcache.demand_avg_mshr_miss_latency::cpu.data 94427.934713                       # average overall mshr miss latency
system.cpu.dcache.demand_avg_mshr_miss_latency::total 94427.934713                       # average overall mshr miss latency
system.cpu.dcache.overall_avg_mshr_miss_latency::cpu.data 94427.934713                       # average overall mshr miss latency
system.cpu.dcache.overall_avg_mshr_miss_latency::total 94427.934713                       # average overall mshr miss latency
system.cpu.dcache.replacements                  46516                       # number of replacements
system.cpu.dtb_walker_cache.tags.pwrStateResidencyTicks::UNDEFINED  91701357000                       # Cumulative time (in ticks) in various power states
system.cpu.dtb_walker_cache.tags.tagsinuse            0                       # Cycle average of tags in use
system.cpu.dtb_walker_cache.tags.total_refs            0                       # Total number of references to valid blocks.
system.cpu.dtb_walker_cache.tags.sampled_refs            0                       # Sample count of references to valid blocks.
system.cpu.dtb_walker_cache.tags.avg_refs          nan                       # Average number of references to valid blocks.
system.cpu.dtb_walker_cache.tags.warmup_cycle            0                       # Cycle when the warmup percentage was hit.
system.cpu.dtb_walker_cache.tags.tag_accesses            0                       # Number of tag accesses
system.cpu.dtb_walker_cache.tags.data_accesses            0                       # Number of data accesses
system.cpu.dtb_walker_cache.pwrStateResidencyTicks::UNDEFINED  91701357000                       # Cumulative time (in ticks) in various power states
system.cpu.dtb_walker_cache.blocked_cycles::no_mshrs            0                       # number of cycles access was blocked
system.cpu.dtb_walker_cache.blocked_cycles::no_targets            0                       # number of cycles access was blocked
system.cpu.dtb_walker_cache.blocked::no_mshrs            0                       # number of cycles access was blocked
system.cpu.dtb_walker_cache.blocked::no_targets            0                       # number of cycles access was blocked
system.cpu.dtb_walker_cache.avg_blocked_cycles::no_mshrs          nan                       # average number of cycles each access was blocked
system.cpu.dtb_walker_cache.avg_blocked_cycles::no_targets          nan                       # average number of cycles each access was blocked
system.cpu.dtb_walker_cache.replacements            0                       # number of replacements
system.cpu.icache.tags.pwrStateResidencyTicks::UNDEFINED  91701357000                       # Cumulative time (in ticks) in various power states
system.cpu.icache.tags.tagsinuse           441.175223                       # Cycle average of tags in use
system.cpu.icache.tags.total_refs            59428566                       # Total number of references to valid blocks.
system.cpu.icache.tags.sampled_refs               755                       # Sample count of references to valid blocks.
system.cpu.icache.tags.avg_refs          78713.332450                       # Average number of references to valid blocks.
system.cpu.icache.tags.warmup_cycle            449000                       # Cycle when the warmup percentage was hit.
system.cpu.icache.tags.occ_blocks::cpu.inst   441.175223                       # Average occupied blocks per requestor
system.cpu.icache.tags.occ_percent::cpu.inst     0.861670                       # Average percentage of cache occupancy
system.cpu.icache.tags.occ_percent::total     0.861670                       # Average percentage of cache occupancy
system.cpu.icache.tags.occ_task_id_blocks::1024          452                       # Occupied blocks per task id
system.cpu.icache.tags.age_task_id_blocks_1024::0           22                       # Occupied blocks per task id
system.cpu.icache.tags.age_task_id_blocks_1024::1           38                       # Occupied blocks per task id
system.cpu.icache.tags.age_task_id_blocks_1024::4          392                       # Occupied blocks per task id
system.cpu.icache.tags.occ_task_id_percent::1024     0.882812                       # Percentage of cache occupancy per task id
system.cpu.icache.tags.tag_accesses         118857887                       # Number of tag accesses
system.cpu.icache.tags.data_accesses        118857887                       # Number of data accesses
system.cpu.icache.pwrStateResidencyTicks::UNDEFINED  91701357000                       # Cumulative time (in ticks) in various power states
system.cpu.icache.ReadReq_hits::cpu.inst     59427811                       # number of ReadReq hits
system.cpu.icache.ReadReq_hits::total        59427811                       # number of ReadReq hits
system.cpu.icache.demand_hits::cpu.inst      59427811                       # number of demand (read+write) hits
system.cpu.icache.demand_hits::total         59427811                       # number of demand (read+write) hits
system.cpu.icache.overall_hits::cpu.inst     59427811                       # number of overall hits
system.cpu.icache.overall_hits::total        59427811                       # number of overall hits
system.cpu.icache.ReadReq_misses::cpu.inst          755                       # number of ReadReq misses
system.cpu.icache.ReadReq_misses::total           755                       # number of ReadReq misses
system.cpu.icache.demand_misses::cpu.inst          755                       # number of demand (read+write) misses
system.cpu.icache.demand_misses::total            755                       # number of demand (read+write) misses
system.cpu.icache.overall_misses::cpu.inst          755                       # number of overall misses
system.cpu.icache.overall_misses::total           755                       # number of overall misses
system.cpu.icache.ReadReq_miss_latency::cpu.inst    122305500                       # number of ReadReq miss cycles
system.cpu.icache.ReadReq_miss_latency::total    122305500                       # number of ReadReq miss cycles
system.cpu.icache.demand_miss_latency::cpu.inst    122305500                       # number of demand (read+write) miss cycles
system.cpu.icache.demand_miss_latency::total    122305500                       # number of demand (read+write) miss cycles
system.cpu.icache.overall_miss_latency::cpu.inst    122305500                       # number of overall miss cycles
system.cpu.icache.overall_miss_latency::total    122305500                       # number of overall miss cycles
system.cpu.icache.ReadReq_accesses::cpu.inst     59428566                       # number of ReadReq accesses(hits+misses)
system.cpu.icache.ReadReq_accesses::total     59428566                       # number of ReadReq accesses(hits+misses)
system.cpu.icache.demand_accesses::cpu.inst     59428566                       # number of demand (read+write) accesses
system.cpu.icache.demand_accesses::total     59428566                       # number of demand (read+write) accesses
system.cpu.icache.overall_accesses::cpu.inst     59428566                       # number of overall (read+write) accesses
system.cpu.icache.overall_accesses::total     59428566                       # number of overall (read+write) accesses
system.cpu.icache.ReadReq_miss_rate::cpu.inst     0.000013                       # miss rate for ReadReq accesses
system.cpu.icache.ReadReq_miss_rate::total     0.000013                       # miss rate for ReadReq accesses
system.cpu.icache.demand_miss_rate::cpu.inst     0.000013                       # miss rate for demand accesses
system.cpu.icache.demand_miss_rate::total     0.000013                       # miss rate for demand accesses
system.cpu.icache.overall_miss_rate::cpu.inst     0.000013                       # miss rate for overall accesses
system.cpu.icache.overall_miss_rate::total     0.000013                       # miss rate for overall accesses
system.cpu.icache.ReadReq_avg_miss_latency::cpu.inst 161994.039735                       # average ReadReq miss latency
system.cpu.icache.ReadReq_avg_miss_latency::total 161994.039735                       # average ReadReq miss latency
system.cpu.icache.demand_avg_miss_latency::cpu.inst 161994.039735                       # average overall miss latency
system.cpu.icache.demand_avg_miss_latency::total 161994.039735                       # average overall miss latency
system.cpu.icache.overall_avg_miss_latency::cpu.inst 161994.039735                       # average overall miss latency
system.cpu.icache.overall_avg_miss_latency::total 161994.039735                       # average overall miss latency
system.cpu.icache.blocked_cycles::no_mshrs            0                       # number of cycles access was blocked
system.cpu.icache.blocked_cycles::no_targets            0                       # number of cycles access was blocked
system.cpu.icache.blocked::no_mshrs                 0                       # number of cycles access was blocked
system.cpu.icache.blocked::no_targets               0                       # number of cycles access was blocked
system.cpu.icache.avg_blocked_cycles::no_mshrs          nan                       # average number of cycles each access was blocked
system.cpu.icache.avg_blocked_cycles::no_targets          nan                       # average number of cycles each access was blocked
system.cpu.icache.writebacks::writebacks          303                       # number of writebacks
system.cpu.icache.writebacks::total               303                       # number of writebacks
system.cpu.icache.ReadReq_mshr_misses::cpu.inst          755                       # number of ReadReq MSHR misses
system.cpu.icache.ReadReq_mshr_misses::total          755                       # number of ReadReq MSHR misses
system.cpu.icache.demand_mshr_misses::cpu.inst          755                       # number of demand (read+write) MSHR misses
system.cpu.icache.demand_mshr_misses::total          755                       # number of demand (read+write) MSHR misses
system.cpu.icache.overall_mshr_misses::cpu.inst          755                       # number of overall MSHR misses
system.cpu.icache.overall_mshr_misses::total          755                       # number of overall MSHR misses
system.cpu.icache.ReadReq_mshr_miss_latency::cpu.inst    121550500                       # number of ReadReq MSHR miss cycles
system.cpu.icache.ReadReq_mshr_miss_latency::total    121550500                       # number of ReadReq MSHR miss cycles
system.cpu.icache.demand_mshr_miss_latency::cpu.inst    121550500                       # number of demand (read+write) MSHR miss cycles
system.cpu.icache.demand_mshr_miss_latency::total    121550500                       # number of demand (read+write) MSHR miss cycles
system.cpu.icache.overall_mshr_miss_latency::cpu.inst    121550500                       # number of overall MSHR miss cycles
system.cpu.icache.overall_mshr_miss_latency::total    121550500                       # number of overall MSHR miss cycles
system.cpu.icache.ReadReq_mshr_miss_rate::cpu.inst     0.000013                       # mshr miss rate for ReadReq accesses
system.cpu.icache.ReadReq_mshr_miss_rate::total     0.000013                       # mshr miss rate for ReadReq accesses
system.cpu.icache.demand_mshr_miss_rate::cpu.inst     0.000013                       # mshr miss rate for demand accesses
system.cpu.icache.demand_mshr_miss_rate::total     0.000013                       # mshr miss rate for demand accesses
system.cpu.icache.overall_mshr_miss_rate::cpu.inst     0.000013                       # mshr miss rate for overall accesses
system.cpu.icache.overall_mshr_miss_rate::total     0.000013                       # mshr miss rate for overall accesses
system.cpu.icache.ReadReq_avg_mshr_miss_latency::cpu.inst 160994.039735                       # average ReadReq mshr miss latency
system.cpu.icache.ReadReq_avg_mshr_miss_latency::total 160994.039735                       # average ReadReq mshr miss latency
system.cpu.icache.demand_avg_mshr_miss_latency::cpu.inst 160994.039735                       # average overall mshr miss latency
system.cpu.icache.demand_avg_mshr_miss_latency::total 160994.039735                       # average overall mshr miss latency
system.cpu.icache.overall_avg_mshr_miss_latency::cpu.inst 160994.039735                       # average overall mshr miss latency
system.cpu.icache.overall_avg_mshr_miss_latency::total 160994.039735                       # average overall mshr miss latency
system.cpu.icache.replacements                    303                       # number of replacements
system.cpu.itb_walker_cache.tags.pwrStateResidencyTicks::UNDEFINED  91701357000                       # Cumulative time (in ticks) in various power states
system.cpu.itb_walker_cache.tags.tagsinuse            0                       # Cycle average of tags in use
system.cpu.itb_walker_cache.tags.total_refs            0                       # Total number of references to valid blocks.
system.cpu.itb_walker_cache.tags.sampled_refs            0                       # Sample count of references to valid blocks.
system.cpu.itb_walker_cache.tags.avg_refs          nan                       # Average number of references to valid blocks.
system.cpu.itb_walker_cache.tags.warmup_cycle            0                       # Cycle when the warmup percentage was hit.
system.cpu.itb_walker_cache.tags.tag_accesses            0                       # Number of tag accesses
system.cpu.itb_walker_cache.tags.data_accesses            0                       # Number of data accesses
system.cpu.itb_walker_cache.pwrStateResidencyTicks::UNDEFINED  91701357000                       # Cumulative time (in ticks) in various power states
system.cpu.itb_walker_cache.blocked_cycles::no_mshrs            0                       # number of cycles access was blocked
system.cpu.itb_walker_cache.blocked_cycles::no_targets            0                       # number of cycles access was blocked
system.cpu.itb_walker_cache.blocked::no_mshrs            0                       # number of cycles access was blocked
system.cpu.itb_walker_cache.blocked::no_targets            0                       # number of cycles access was blocked
system.cpu.itb_walker_cache.avg_blocked_cycles::no_mshrs          nan                       # average number of cycles each access was blocked
system.cpu.itb_walker_cache.avg_blocked_cycles::no_targets          nan                       # average number of cycles each access was blocked
system.cpu.itb_walker_cache.replacements            0                       # number of replacements
system.l2.tags.pwrStateResidencyTicks::UNDEFINED  91701357000                       # Cumulative time (in ticks) in various power states
system.l2.tags.tagsinuse                  2043.318212                       # Cycle average of tags in use
system.l2.tags.total_refs                      103973                       # Total number of references to valid blocks.
system.l2.tags.sampled_refs                     26174                       # Sample count of references to valid blocks.
system.l2.tags.avg_refs                      3.972377                       # Average number of references to valid blocks.
system.l2.tags.warmup_cycle                    438500                       # Cycle when the warmup percentage was hit.
system.l2.tags.occ_blocks::writebacks        4.499680                       # Average occupied blocks per requestor
system.l2.tags.occ_blocks::cpu.inst          8.970331                       # Average occupied blocks per requestor
system.l2.tags.occ_blocks::cpu.data       2029.848201                       # Average occupied blocks per requestor
system.l2.tags.occ_percent::writebacks       0.002197                       # Average percentage of cache occupancy
system.l2.tags.occ_percent::cpu.inst         0.004380                       # Average percentage of cache occupancy
system.l2.tags.occ_percent::cpu.data         0.991137                       # Average percentage of cache occupancy
system.l2.tags.occ_percent::total            0.997714                       # Average percentage of cache occupancy
system.l2.tags.occ_task_id_blocks::1024          2048                       # Occupied blocks per task id
system.l2.tags.age_task_id_blocks_1024::0           56                       # Occupied blocks per task id
system.l2.tags.age_task_id_blocks_1024::1          110                       # Occupied blocks per task id
system.l2.tags.age_task_id_blocks_1024::2           34                       # Occupied blocks per task id
system.l2.tags.age_task_id_blocks_1024::3           53                       # Occupied blocks per task id
system.l2.tags.age_task_id_blocks_1024::4         1795                       # Occupied blocks per task id
system.l2.tags.occ_task_id_percent::1024            1                       # Percentage of cache occupancy per task id
system.l2.tags.tag_accesses                    858182                       # Number of tag accesses
system.l2.tags.data_accesses                   858182                       # Number of data accesses
system.l2.pwrStateResidencyTicks::UNDEFINED  91701357000                       # Cumulative time (in ticks) in various power states
system.l2.WritebackDirty_hits::writebacks        43950                       # number of WritebackDirty hits
system.l2.WritebackDirty_hits::total            43950                       # number of WritebackDirty hits
system.l2.WritebackClean_hits::writebacks          303                       # number of WritebackClean hits
system.l2.WritebackClean_hits::total              303                       # number of WritebackClean hits
system.l2.UpgradeReq_hits::cpu.data              9400                       # number of UpgradeReq hits
system.l2.UpgradeReq_hits::total                 9400                       # number of UpgradeReq hits
system.l2.ReadExReq_hits::cpu.data                279                       # number of ReadExReq hits
system.l2.ReadExReq_hits::total                   279                       # number of ReadExReq hits
system.l2.ReadCleanReq_hits::cpu.inst              16                       # number of ReadCleanReq hits
system.l2.ReadCleanReq_hits::total                 16                       # number of ReadCleanReq hits
system.l2.ReadSharedReq_hits::cpu.data          21496                       # number of ReadSharedReq hits
system.l2.ReadSharedReq_hits::total             21496                       # number of ReadSharedReq hits
system.l2.demand_hits::cpu.inst                    16                       # number of demand (read+write) hits
system.l2.demand_hits::cpu.data                 21775                       # number of demand (read+write) hits
system.l2.demand_hits::total                    21791                       # number of demand (read+write) hits
system.l2.overall_hits::cpu.inst                   16                       # number of overall hits
system.l2.overall_hits::cpu.data                21775                       # number of overall hits
system.l2.overall_hits::total                   21791                       # number of overall hits
system.l2.ReadExReq_misses::cpu.data             6816                       # number of ReadExReq misses
system.l2.ReadExReq_misses::total                6816                       # number of ReadExReq misses
system.l2.ReadCleanReq_misses::cpu.inst           739                       # number of ReadCleanReq misses
system.l2.ReadCleanReq_misses::total              739                       # number of ReadCleanReq misses
system.l2.ReadSharedReq_misses::cpu.data        18437                       # number of ReadSharedReq misses
system.l2.ReadSharedReq_misses::total           18437                       # number of ReadSharedReq misses
system.l2.demand_misses::cpu.inst                 739                       # number of demand (read+write) misses
system.l2.demand_misses::cpu.data               25253                       # number of demand (read+write) misses
system.l2.demand_misses::total                  25992                       # number of demand (read+write) misses
system.l2.overall_misses::cpu.inst                739                       # number of overall misses
system.l2.overall_misses::cpu.data              25253                       # number of overall misses
system.l2.overall_misses::total                 25992                       # number of overall misses
system.l2.ReadExReq_miss_latency::cpu.data   1535693000                       # number of ReadExReq miss cycles
system.l2.ReadExReq_miss_latency::total    1535693000                       # number of ReadExReq miss cycles
system.l2.ReadCleanReq_miss_latency::cpu.inst    120246000                       # number of ReadCleanReq miss cycles
system.l2.ReadCleanReq_miss_latency::total    120246000                       # number of ReadCleanReq miss cycles
system.l2.ReadSharedReq_miss_latency::cpu.data   3380696000                       # number of ReadSharedReq miss cycles
system.l2.ReadSharedReq_miss_latency::total   3380696000                       # number of ReadSharedReq miss cycles
system.l2.demand_miss_latency::cpu.inst     120246000                       # number of demand (read+write) miss cycles
system.l2.demand_miss_latency::cpu.data    4916389000                       # number of demand (read+write) miss cycles
system.l2.demand_miss_latency::total       5036635000                       # number of demand (read+write) miss cycles
system.l2.overall_miss_latency::cpu.inst    120246000                       # number of overall miss cycles
system.l2.overall_miss_latency::cpu.data   4916389000                       # number of overall miss cycles
system.l2.overall_miss_latency::total      5036635000                       # number of overall miss cycles
system.l2.WritebackDirty_accesses::writebacks        43950                       # number of WritebackDirty accesses(hits+misses)
system.l2.WritebackDirty_accesses::total        43950                       # number of WritebackDirty accesses(hits+misses)
system.l2.WritebackClean_accesses::writebacks          303                       # number of WritebackClean accesses(hits+misses)
system.l2.WritebackClean_accesses::total          303                       # number of WritebackClean accesses(hits+misses)
system.l2.UpgradeReq_accesses::cpu.data          9400                       # number of UpgradeReq accesses(hits+misses)
system.l2.UpgradeReq_accesses::total             9400                       # number of UpgradeReq accesses(hits+misses)
system.l2.ReadExReq_accesses::cpu.data           7095                       # number of ReadExReq accesses(hits+misses)
system.l2.ReadExReq_accesses::total              7095                       # number of ReadExReq accesses(hits+misses)
system.l2.ReadCleanReq_accesses::cpu.inst          755                       # number of ReadCleanReq accesses(hits+misses)
system.l2.ReadCleanReq_accesses::total            755                       # number of ReadCleanReq accesses(hits+misses)
system.l2.ReadSharedReq_accesses::cpu.data        39933                       # number of ReadSharedReq accesses(hits+misses)
system.l2.ReadSharedReq_accesses::total         39933                       # number of ReadSharedReq accesses(hits+misses)
system.l2.demand_accesses::cpu.inst               755                       # number of demand (read+write) accesses
system.l2.demand_accesses::cpu.data             47028                       # number of demand (read+write) accesses
system.l2.demand_accesses::total                47783                       # number of demand (read+write) accesses
system.l2.overall_accesses::cpu.inst              755                       # number of overall (read+write) accesses
system.l2.overall_accesses::cpu.data            47028                       # number of overall (read+write) accesses
system.l2.overall_accesses::total               47783                       # number of overall (read+write) accesses
system.l2.ReadExReq_miss_rate::cpu.data      0.960677                       # miss rate for ReadExReq accesses
system.l2.ReadExReq_miss_rate::total         0.960677                       # miss rate for ReadExReq accesses
system.l2.ReadCleanReq_miss_rate::cpu.inst     0.978808                       # miss rate for ReadCleanReq accesses
system.l2.ReadCleanReq_miss_rate::total      0.978808                       # miss rate for ReadCleanReq accesses
system.l2.ReadSharedReq_miss_rate::cpu.data     0.461698                       # miss rate for ReadSharedReq accesses
system.l2.ReadSharedReq_miss_rate::total     0.461698                       # miss rate for ReadSharedReq accesses
system.l2.demand_miss_rate::cpu.inst         0.978808                       # miss rate for demand accesses
system.l2.demand_miss_rate::cpu.data         0.536978                       # miss rate for demand accesses
system.l2.demand_miss_rate::total            0.543959                       # miss rate for demand accesses
system.l2.overall_miss_rate::cpu.inst        0.978808                       # miss rate for overall accesses
system.l2.overall_miss_rate::cpu.data        0.536978                       # miss rate for overall accesses
system.l2.overall_miss_rate::total           0.543959                       # miss rate for overall accesses
system.l2.ReadExReq_avg_miss_latency::cpu.data 225307.071596                       # average ReadExReq miss latency
system.l2.ReadExReq_avg_miss_latency::total 225307.071596                       # average ReadExReq miss latency
system.l2.ReadCleanReq_avg_miss_latency::cpu.inst 162714.479026                       # average ReadCleanReq miss latency
system.l2.ReadCleanReq_avg_miss_latency::total 162714.479026                       # average ReadCleanReq miss latency
system.l2.ReadSharedReq_avg_miss_latency::cpu.data 183364.755654                       # average ReadSharedReq miss latency
system.l2.ReadSharedReq_avg_miss_latency::total 183364.755654                       # average ReadSharedReq miss latency
system.l2.demand_avg_miss_latency::cpu.inst 162714.479026                       # average overall miss latency
system.l2.demand_avg_miss_latency::cpu.data 194685.344316                       # average overall miss latency
system.l2.demand_avg_miss_latency::total 193776.354263                       # average overall miss latency
system.l2.overall_avg_miss_latency::cpu.inst 162714.479026                       # average overall miss latency
system.l2.overall_avg_miss_latency::cpu.data 194685.344316                       # average overall miss latency
system.l2.overall_avg_miss_latency::total 193776.354263                       # average overall miss latency
system.l2.blocked_cycles::no_mshrs                  0                       # number of cycles access was blocked
system.l2.blocked_cycles::no_targets                0                       # number of cycles access was blocked
system.l2.blocked::no_mshrs                         0                       # number of cycles access was blocked
system.l2.blocked::no_targets                       0                       # number of cycles access was blocked
system.l2.avg_blocked_cycles::no_mshrs            nan                       # average number of cycles each access was blocked
system.l2.avg_blocked_cycles::no_targets          nan                       # average number of cycles each access was blocked
system.l2.writebacks::writebacks                22208                       # number of writebacks
system.l2.writebacks::total                     22208                       # number of writebacks
system.l2.CleanEvict_mshr_misses::writebacks           28                       # number of CleanEvict MSHR misses
system.l2.CleanEvict_mshr_misses::total            28                       # number of CleanEvict MSHR misses
system.l2.ReadExReq_mshr_misses::cpu.data         6816                       # number of ReadExReq MSHR misses
system.l2.ReadExReq_mshr_misses::total           6816                       # number of ReadExReq MSHR misses
system.l2.ReadCleanReq_mshr_misses::cpu.inst          739                       # number of ReadCleanReq MSHR misses
system.l2.ReadCleanReq_mshr_misses::total          739                       # number of ReadCleanReq MSHR misses
system.l2.ReadSharedReq_mshr_misses::cpu.data        18437                       # number of ReadSharedReq MSHR misses
system.l2.ReadSharedReq_mshr_misses::total        18437                       # number of ReadSharedReq MSHR misses
system.l2.demand_mshr_misses::cpu.inst            739                       # number of demand (read+write) MSHR misses
system.l2.demand_mshr_misses::cpu.data          25253                       # number of demand (read+write) MSHR misses
system.l2.demand_mshr_misses::total             25992                       # number of demand (read+write) MSHR misses
system.l2.overall_mshr_misses::cpu.inst           739                       # number of overall MSHR misses
system.l2.overall_mshr_misses::cpu.data         25253                       # number of overall MSHR misses
system.l2.overall_mshr_misses::total            25992                       # number of overall MSHR misses
system.l2.ReadExReq_mshr_miss_latency::cpu.data   1467533000                       # number of ReadExReq MSHR miss cycles
system.l2.ReadExReq_mshr_miss_latency::total   1467533000                       # number of ReadExReq MSHR miss cycles
system.l2.ReadCleanReq_mshr_miss_latency::cpu.inst    112856000                       # number of ReadCleanReq MSHR miss cycles
system.l2.ReadCleanReq_mshr_miss_latency::total    112856000                       # number of ReadCleanReq MSHR miss cycles
system.l2.ReadSharedReq_mshr_miss_latency::cpu.data   3196326000                       # number of ReadSharedReq MSHR miss cycles
system.l2.ReadSharedReq_mshr_miss_latency::total   3196326000                       # number of ReadSharedReq MSHR miss cycles
system.l2.demand_mshr_miss_latency::cpu.inst    112856000                       # number of demand (read+write) MSHR miss cycles
system.l2.demand_mshr_miss_latency::cpu.data   4663859000                       # number of demand (read+write) MSHR miss cycles
system.l2.demand_mshr_miss_latency::total   4776715000                       # number of demand (read+write) MSHR miss cycles
system.l2.overall_mshr_miss_latency::cpu.inst    112856000                       # number of overall MSHR miss cycles
system.l2.overall_mshr_miss_latency::cpu.data   4663859000                       # number of overall MSHR miss cycles
system.l2.overall_mshr_miss_latency::total   4776715000                       # number of overall MSHR miss cycles
system.l2.CleanEvict_mshr_miss_rate::writebacks          inf                       # mshr miss rate for CleanEvict accesses
system.l2.CleanEvict_mshr_miss_rate::total          inf                       # mshr miss rate for CleanEvict accesses
system.l2.ReadExReq_mshr_miss_rate::cpu.data     0.960677                       # mshr miss rate for ReadExReq accesses
system.l2.ReadExReq_mshr_miss_rate::total     0.960677                       # mshr miss rate for ReadExReq accesses
system.l2.ReadCleanReq_mshr_miss_rate::cpu.inst     0.978808                       # mshr miss rate for ReadCleanReq accesses
system.l2.ReadCleanReq_mshr_miss_rate::total     0.978808                       # mshr miss rate for ReadCleanReq accesses
system.l2.ReadSharedReq_mshr_miss_rate::cpu.data     0.461698                       # mshr miss rate for ReadSharedReq accesses
system.l2.ReadSharedReq_mshr_miss_rate::total     0.461698                       # mshr miss rate for ReadSharedReq accesses
system.l2.demand_mshr_miss_rate::cpu.inst     0.978808                       # mshr miss rate for demand accesses
system.l2.demand_mshr_miss_rate::cpu.data     0.536978                       # mshr miss rate for demand accesses
system.l2.demand_mshr_miss_rate::total       0.543959                       # mshr miss rate for demand accesses
system.l2.overall_mshr_miss_rate::cpu.inst     0.978808                       # mshr miss rate for overall accesses
system.l2.overall_mshr_miss_rate::cpu.data     0.536978                       # mshr miss rate for overall accesses
system.l2.overall_mshr_miss_rate::total      0.543959                       # mshr miss rate for overall accesses
system.l2.ReadExReq_avg_mshr_miss_latency::cpu.data 215307.071596                       # average ReadExReq mshr miss latency
system.l2.ReadExReq_avg_mshr_miss_latency::total 215307.071596                       # average ReadExReq mshr miss latency
system.l2.ReadCleanReq_avg_mshr_miss_latency::cpu.inst 152714.479026                       # average ReadCleanReq mshr miss latency
system.l2.ReadCleanReq_avg_mshr_miss_latency::total 152714.479026                       # average ReadCleanReq mshr miss latency
system.l2.ReadSharedReq_avg_mshr_miss_latency::cpu.data 173364.755654                       # average ReadSharedReq mshr miss latency
system.l2.ReadSharedReq_avg_mshr_miss_latency::total 173364.755654                       # average ReadSharedReq mshr miss latency
system.l2.demand_avg_mshr_miss_latency::cpu.inst 152714.479026                       # average overall mshr miss latency
system.l2.demand_avg_mshr_miss_latency::cpu.data 184685.344316                       # average overall mshr miss latency
system.l2.demand_avg_mshr_miss_latency::total 183776.354263                       # average overall mshr miss latency
system.l2.overall_avg_mshr_miss_latency::cpu.inst 152714.479026                       # average overall mshr miss latency
system.l2.overall_avg_mshr_miss_latency::cpu.data 184685.344316                       # average overall mshr miss latency
system.l2.overall_avg_mshr_miss_latency::total 183776.354263                       # average overall mshr miss latency
system.l2.replacements                          24126                       # number of replacements
system.l3.tags.pwrStateResidencyTicks::UNDEFINED  91701357000                       # Cumulative time (in ticks) in various power states
system.l3.tags.tagsinuse                  3986.210840                       # Cycle average of tags in use
system.l3.tags.total_refs                       48878                       # Total number of references to valid blocks.
system.l3.tags.sampled_refs                     20036                       # Sample count of references to valid blocks.
system.l3.tags.avg_refs                      2.439509                       # Average number of references to valid blocks.
system.l3.tags.warmup_cycle                    418000                       # Cycle when the warmup percentage was hit.
system.l3.tags.occ_blocks::writebacks      587.489977                       # Average occupied blocks per requestor
system.l3.tags.occ_blocks::cpu.inst         21.817049                       # Average occupied blocks per requestor
system.l3.tags.occ_blocks::cpu.data       3376.903813                       # Average occupied blocks per requestor
system.l3.tags.occ_percent::writebacks       0.143430                       # Average percentage of cache occupancy
system.l3.tags.occ_percent::cpu.inst         0.005326                       # Average percentage of cache occupancy
system.l3.tags.occ_percent::cpu.data         0.824439                       # Average percentage of cache occupancy
system.l3.tags.occ_percent::total            0.973196                       # Average percentage of cache occupancy
system.l3.tags.occ_task_id_blocks::1024          4096                       # Occupied blocks per task id
system.l3.tags.age_task_id_blocks_1024::0           36                       # Occupied blocks per task id
system.l3.tags.age_task_id_blocks_1024::1           78                       # Occupied blocks per task id
system.l3.tags.age_task_id_blocks_1024::3            2                       # Occupied blocks per task id
system.l3.tags.age_task_id_blocks_1024::4         3980                       # Occupied blocks per task id
system.l3.tags.occ_task_id_percent::1024            1                       # Percentage of cache occupancy per task id
system.l3.tags.tag_accesses                     69577                       # Number of tag accesses
system.l3.tags.data_accesses                    69577                       # Number of data accesses
system.l3.pwrStateResidencyTicks::UNDEFINED  91701357000                       # Cumulative time (in ticks) in various power states
system.l3.WritebackDirty_hits::writebacks        22208                       # number of WritebackDirty hits
system.l3.WritebackDirty_hits::total            22208                       # number of WritebackDirty hits
system.l3.ReadExReq_hits::cpu.data                 47                       # number of ReadExReq hits
system.l3.ReadExReq_hits::total                    47                       # number of ReadExReq hits
system.l3.ReadSharedReq_hits::cpu.inst              3                       # number of ReadSharedReq hits
system.l3.ReadSharedReq_hits::cpu.data          10502                       # number of ReadSharedReq hits
system.l3.ReadSharedReq_hits::total             10505                       # number of ReadSharedReq hits
system.l3.demand_hits::cpu.inst                     3                       # number of demand (read+write) hits
system.l3.demand_hits::cpu.data                 10549                       # number of demand (read+write) hits
system.l3.demand_hits::total                    10552                       # number of demand (read+write) hits
system.l3.overall_hits::cpu.inst                    3                       # number of overall hits
system.l3.overall_hits::cpu.data                10549                       # number of overall hits
system.l3.overall_hits::total                   10552                       # number of overall hits
system.l3.ReadExReq_misses::cpu.data             6769                       # number of ReadExReq misses
system.l3.ReadExReq_misses::total                6769                       # number of ReadExReq misses
system.l3.ReadSharedReq_misses::cpu.inst          736                       # number of ReadSharedReq misses
system.l3.ReadSharedReq_misses::cpu.data         7935                       # number of ReadSharedReq misses
system.l3.ReadSharedReq_misses::total            8671                       # number of ReadSharedReq misses
system.l3.demand_misses::cpu.inst                 736                       # number of demand (read+write) misses
system.l3.demand_misses::cpu.data               14704                       # number of demand (read+write) misses
system.l3.demand_misses::total                  15440                       # number of demand (read+write) misses
system.l3.overall_misses::cpu.inst                736                       # number of overall misses
system.l3.overall_misses::cpu.data              14704                       # number of overall misses
system.l3.overall_misses::total                 15440                       # number of overall misses
system.l3.ReadExReq_miss_latency::cpu.data   1391593500                       # number of ReadExReq miss cycles
system.l3.ReadExReq_miss_latency::total    1391593500                       # number of ReadExReq miss cycles
system.l3.ReadSharedReq_miss_latency::cpu.inst    104665500                       # number of ReadSharedReq miss cycles
system.l3.ReadSharedReq_miss_latency::cpu.data   2778228000                       # number of ReadSharedReq miss cycles
system.l3.ReadSharedReq_miss_latency::total   2882893500                       # number of ReadSharedReq miss cycles
system.l3.demand_miss_latency::cpu.inst     104665500                       # number of demand (read+write) miss cycles
system.l3.demand_miss_latency::cpu.data    4169821500                       # number of demand (read+write) miss cycles
system.l3.demand_miss_latency::total       4274487000                       # number of demand (read+write) miss cycles
system.l3.overall_miss_latency::cpu.inst    104665500                       # number of overall miss cycles
system.l3.overall_miss_latency::cpu.data   4169821500                       # number of overall miss cycles
system.l3.overall_miss_latency::total      4274487000                       # number of overall miss cycles
system.l3.WritebackDirty_accesses::writebacks        22208                       # number of WritebackDirty accesses(hits+misses)
system.l3.WritebackDirty_accesses::total        22208                       # number of WritebackDirty accesses(hits+misses)
system.l3.ReadExReq_accesses::cpu.data           6816                       # number of ReadExReq accesses(hits+misses)
system.l3.ReadExReq_accesses::total              6816                       # number of ReadExReq accesses(hits+misses)
system.l3.ReadSharedReq_accesses::cpu.inst          739                       # number of ReadSharedReq accesses(hits+misses)
system.l3.ReadSharedReq_accesses::cpu.data        18437                       # number of ReadSharedReq accesses(hits+misses)
system.l3.ReadSharedReq_accesses::total         19176                       # number of ReadSharedReq accesses(hits+misses)
system.l3.demand_accesses::cpu.inst               739                       # number of demand (read+write) accesses
system.l3.demand_accesses::cpu.data             25253                       # number of demand (read+write) accesses
system.l3.demand_accesses::total                25992                       # number of demand (read+write) accesses
system.l3.overall_accesses::cpu.inst              739                       # number of overall (read+write) accesses
system.l3.overall_accesses::cpu.data            25253                       # number of overall (read+write) accesses
system.l3.overall_accesses::total               25992                       # number of overall (read+write) accesses
system.l3.ReadExReq_miss_rate::cpu.data      0.993104                       # miss rate for ReadExReq accesses
system.l3.ReadExReq_miss_rate::total         0.993104                       # miss rate for ReadExReq accesses
system.l3.ReadSharedReq_miss_rate::cpu.inst     0.995940                       # miss rate for ReadSharedReq accesses
system.l3.ReadSharedReq_miss_rate::cpu.data     0.430385                       # miss rate for ReadSharedReq accesses
system.l3.ReadSharedReq_miss_rate::total     0.452180                       # miss rate for ReadSharedReq accesses
system.l3.demand_miss_rate::cpu.inst         0.995940                       # miss rate for demand accesses
system.l3.demand_miss_rate::cpu.data         0.582267                       # miss rate for demand accesses
system.l3.demand_miss_rate::total            0.594029                       # miss rate for demand accesses
system.l3.overall_miss_rate::cpu.inst        0.995940                       # miss rate for overall accesses
system.l3.overall_miss_rate::cpu.data        0.582267                       # miss rate for overall accesses
system.l3.overall_miss_rate::total           0.594029                       # miss rate for overall accesses
system.l3.ReadExReq_avg_miss_latency::cpu.data 205583.321022                       # average ReadExReq miss latency
system.l3.ReadExReq_avg_miss_latency::total 205583.321022                       # average ReadExReq miss latency
system.l3.ReadSharedReq_avg_miss_latency::cpu.inst 142208.559783                       # average ReadSharedReq miss latency
system.l3.ReadSharedReq_avg_miss_latency::cpu.data 350123.251418                       # average ReadSharedReq miss latency
system.l3.ReadSharedReq_avg_miss_latency::total 332475.320032                       # average ReadSharedReq miss latency
system.l3.demand_avg_miss_latency::cpu.inst 142208.559783                       # average overall miss latency
system.l3.demand_avg_miss_latency::cpu.data 283584.160773                       # average overall miss latency
system.l3.demand_avg_miss_latency::total 276845.012953                       # average overall miss latency
system.l3.overall_avg_miss_latency::cpu.inst 142208.559783                       # average overall miss latency
system.l3.overall_avg_miss_latency::cpu.data 283584.160773                       # average overall miss latency
system.l3.overall_avg_miss_latency::total 276845.012953                       # average overall miss latency
system.l3.blocked_cycles::no_mshrs                  0                       # number of cycles access was blocked
system.l3.blocked_cycles::no_targets                0                       # number of cycles access was blocked
system.l3.blocked::no_mshrs                         0                       # number of cycles access was blocked
system.l3.blocked::no_targets                       0                       # number of cycles access was blocked
system.l3.avg_blocked_cycles::no_mshrs            nan                       # average number of cycles each access was blocked
system.l3.avg_blocked_cycles::no_targets          nan                       # average number of cycles each access was blocked
system.l3.writebacks::writebacks                 9566                       # number of writebacks
system.l3.writebacks::total                      9566                       # number of writebacks
system.l3.CleanEvict_mshr_misses::writebacks          663                       # number of CleanEvict MSHR misses
system.l3.CleanEvict_mshr_misses::total           663                       # number of CleanEvict MSHR misses
system.l3.ReadExReq_mshr_misses::cpu.data         6769                       # number of ReadExReq MSHR misses
system.l3.ReadExReq_mshr_misses::total           6769                       # number of ReadExReq MSHR misses
system.l3.ReadSharedReq_mshr_misses::cpu.inst          736                       # number of ReadSharedReq MSHR misses
system.l3.ReadSharedReq_mshr_misses::cpu.data         7935                       # number of ReadSharedReq MSHR misses
system.l3.ReadSharedReq_mshr_misses::total         8671                       # number of ReadSharedReq MSHR misses
system.l3.demand_mshr_misses::cpu.inst            736                       # number of demand (read+write) MSHR misses
system.l3.demand_mshr_misses::cpu.data          14704                       # number of demand (read+write) MSHR misses
system.l3.demand_mshr_misses::total             15440                       # number of demand (read+write) MSHR misses
system.l3.overall_mshr_misses::cpu.inst           736                       # number of overall MSHR misses
system.l3.overall_mshr_misses::cpu.data         14704                       # number of overall MSHR misses
system.l3.overall_mshr_misses::total            15440                       # number of overall MSHR misses
system.l3.ReadExReq_mshr_miss_latency::cpu.data   1256213500                       # number of ReadExReq MSHR miss cycles
system.l3.ReadExReq_mshr_miss_latency::total   1256213500                       # number of ReadExReq MSHR miss cycles
system.l3.ReadSharedReq_mshr_miss_latency::cpu.inst     89945500                       # number of ReadSharedReq MSHR miss cycles
system.l3.ReadSharedReq_mshr_miss_latency::cpu.data   2619528000                       # number of ReadSharedReq MSHR miss cycles
system.l3.ReadSharedReq_mshr_miss_latency::total   2709473500                       # number of ReadSharedReq MSHR miss cycles
system.l3.demand_mshr_miss_latency::cpu.inst     89945500                       # number of demand (read+write) MSHR miss cycles
system.l3.demand_mshr_miss_latency::cpu.data   3875741500                       # number of demand (read+write) MSHR miss cycles
system.l3.demand_mshr_miss_latency::total   3965687000                       # number of demand (read+write) MSHR miss cycles
system.l3.overall_mshr_miss_latency::cpu.inst     89945500                       # number of overall MSHR miss cycles
system.l3.overall_mshr_miss_latency::cpu.data   3875741500                       # number of overall MSHR miss cycles
system.l3.overall_mshr_miss_latency::total   3965687000                       # number of overall MSHR miss cycles
system.l3.CleanEvict_mshr_miss_rate::writebacks          inf                       # mshr miss rate for CleanEvict accesses
system.l3.CleanEvict_mshr_miss_rate::total          inf                       # mshr miss rate for CleanEvict accesses
system.l3.ReadExReq_mshr_miss_rate::cpu.data     0.993104                       # mshr miss rate for ReadExReq accesses
system.l3.ReadExReq_mshr_miss_rate::total     0.993104                       # mshr miss rate for ReadExReq accesses
system.l3.ReadSharedReq_mshr_miss_rate::cpu.inst     0.995940                       # mshr miss rate for ReadSharedReq accesses
system.l3.ReadSharedReq_mshr_miss_rate::cpu.data     0.430385                       # mshr miss rate for ReadSharedReq accesses
system.l3.ReadSharedReq_mshr_miss_rate::total     0.452180                       # mshr miss rate for ReadSharedReq accesses
system.l3.demand_mshr_miss_rate::cpu.inst     0.995940                       # mshr miss rate for demand accesses
system.l3.demand_mshr_miss_rate::cpu.data     0.582267                       # mshr miss rate for demand accesses
system.l3.demand_mshr_miss_rate::total       0.594029                       # mshr miss rate for demand accesses
system.l3.overall_mshr_miss_rate::cpu.inst     0.995940                       # mshr miss rate for overall accesses
system.l3.overall_mshr_miss_rate::cpu.data     0.582267                       # mshr miss rate for overall accesses
system.l3.overall_mshr_miss_rate::total      0.594029                       # mshr miss rate for overall accesses
system.l3.ReadExReq_avg_mshr_miss_latency::cpu.data 185583.321022                       # average ReadExReq mshr miss latency
system.l3.ReadExReq_avg_mshr_miss_latency::total 185583.321022                       # average ReadExReq mshr miss latency
system.l3.ReadSharedReq_avg_mshr_miss_latency::cpu.inst 122208.559783                       # average ReadSharedReq mshr miss latency
system.l3.ReadSharedReq_avg_mshr_miss_latency::cpu.data 330123.251418                       # average ReadSharedReq mshr miss latency
system.l3.ReadSharedReq_avg_mshr_miss_latency::total 312475.320032                       # average ReadSharedReq mshr miss latency
system.l3.demand_avg_mshr_miss_latency::cpu.inst 122208.559783                       # average overall mshr miss latency
system.l3.demand_avg_mshr_miss_latency::cpu.data 263584.160773                       # average overall mshr miss latency
system.l3.demand_avg_mshr_miss_latency::total 256845.012953                       # average overall mshr miss latency
system.l3.overall_avg_mshr_miss_latency::cpu.inst 122208.559783                       # average overall mshr miss latency
system.l3.overall_avg_mshr_miss_latency::cpu.data 263584.160773                       # average overall mshr miss latency
system.l3.overall_avg_mshr_miss_latency::total 256845.012953                       # average overall mshr miss latency
system.l3.replacements                          15940                       # number of replacements
system.membus.snoop_filter.tot_requests         27686                       # Total number of requests made to the snoop filter.
system.membus.snoop_filter.hit_single_requests        12246                       # Number of requests hitting in the snoop filter with a single holder of the requested data.
system.membus.snoop_filter.hit_multi_requests            0                       # Number of requests hitting in the snoop filter with multiple (>1) holders of the requested data.
system.membus.snoop_filter.tot_snoops               0                       # Total number of snoops made to the snoop filter.
system.membus.snoop_filter.hit_single_snoops            0                       # Number of snoops hitting in the snoop filter with a single holder of the requested data.
system.membus.snoop_filter.hit_multi_snoops            0                       # Number of snoops hitting in the snoop filter with multiple (>1) holders of the requested data.
system.membus.pwrStateResidencyTicks::UNDEFINED  91701357000                       # Cumulative time (in ticks) in various power states
system.membus.trans_dist::ReadResp               8671                       # Transaction distribution
system.membus.trans_dist::WritebackDirty         9566                       # Transaction distribution
system.membus.trans_dist::CleanEvict             1273                       # Transaction distribution
system.membus.trans_dist::ReadExReq              6769                       # Transaction distribution
system.membus.trans_dist::ReadExResp             6769                       # Transaction distribution
system.membus.trans_dist::ReadSharedReq          8671                       # Transaction distribution
system.membus.pkt_count_system.l3.mem_side::system.mem_ctrls.port        41719                       # Packet count per connected master and slave (bytes)
system.membus.pkt_count_system.l3.mem_side::total        41719                       # Packet count per connected master and slave (bytes)
system.membus.pkt_count::total                  41719                       # Packet count per connected master and slave (bytes)
system.membus.pkt_size_system.l3.mem_side::system.mem_ctrls.port      1600384                       # Cumulative packet size per connected master and slave (bytes)
system.membus.pkt_size_system.l3.mem_side::total      1600384                       # Cumulative packet size per connected master and slave (bytes)
system.membus.pkt_size::total                 1600384                       # Cumulative packet size per connected master and slave (bytes)
system.membus.snoops                                0                       # Total snoops (count)
system.membus.snoopTraffic                          0                       # Total snoop traffic (bytes)
system.membus.snoop_fanout::samples             15440                       # Request fanout histogram
system.membus.snoop_fanout::mean                    0                       # Request fanout histogram
system.membus.snoop_fanout::stdev                   0                       # Request fanout histogram
system.membus.snoop_fanout::underflows              0      0.00%      0.00% # Request fanout histogram
system.membus.snoop_fanout::0                   15440    100.00%    100.00% # Request fanout histogram
system.membus.snoop_fanout::1                       0      0.00%    100.00% # Request fanout histogram
system.membus.snoop_fanout::overflows               0      0.00%    100.00% # Request fanout histogram
system.membus.snoop_fanout::min_value               0                       # Request fanout histogram
system.membus.snoop_fanout::max_value               0                       # Request fanout histogram
system.membus.snoop_fanout::total               15440                       # Request fanout histogram
system.membus.reqLayer2.occupancy            65966500                       # Layer occupancy (ticks)
system.membus.reqLayer2.utilization               0.1                       # Layer utilization (%)
system.membus.respLayer1.occupancy           77215000                       # Layer occupancy (ticks)
system.membus.respLayer1.utilization              0.1                       # Layer utilization (%)
system.tol2bus.snoop_filter.tot_requests       104002                       # Total number of requests made to the snoop filter.
system.tol2bus.snoop_filter.hit_single_requests        56219                       # Number of requests hitting in the snoop filter with a single holder of the requested data.
system.tol2bus.snoop_filter.hit_multi_requests            1                       # Number of requests hitting in the snoop filter with multiple (>1) holders of the requested data.
system.tol2bus.snoop_filter.tot_snoops           2931                       # Total number of snoops made to the snoop filter.
system.tol2bus.snoop_filter.hit_single_snoops         2931                       # Number of snoops hitting in the snoop filter with a single holder of the requested data.
system.tol2bus.snoop_filter.hit_multi_snoops            0                       # Number of snoops hitting in the snoop filter with multiple (>1) holders of the requested data.
system.tol2bus.pwrStateResidencyTicks::UNDEFINED  91701357000                       # Cumulative time (in ticks) in various power states
system.tol2bus.trans_dist::ReadResp             40688                       # Transaction distribution
system.tol2bus.trans_dist::WritebackDirty        66158                       # Transaction distribution
system.tol2bus.trans_dist::WritebackClean          303                       # Transaction distribution
system.tol2bus.trans_dist::CleanEvict           10248                       # Transaction distribution
system.tol2bus.trans_dist::UpgradeReq            9400                       # Transaction distribution
system.tol2bus.trans_dist::UpgradeResp           9400                       # Transaction distribution
system.tol2bus.trans_dist::ReadExReq             7095                       # Transaction distribution
system.tol2bus.trans_dist::ReadExResp            7095                       # Transaction distribution
system.tol2bus.trans_dist::ReadCleanReq           755                       # Transaction distribution
system.tol2bus.trans_dist::ReadSharedReq        39933                       # Transaction distribution
system.tol2bus.pkt_count_system.cpu.icache.mem_side::system.l2.cpu_side         1813                       # Packet count per connected master and slave (bytes)
system.tol2bus.pkt_count_system.cpu.dcache.mem_side::system.l2.cpu_side       159372                       # Packet count per connected master and slave (bytes)
system.tol2bus.pkt_count::total                161185                       # Packet count per connected master and slave (bytes)
system.tol2bus.pkt_size_system.cpu.icache.mem_side::system.l2.cpu_side        67712                       # Cumulative packet size per connected master and slave (bytes)
system.tol2bus.pkt_size_system.cpu.dcache.mem_side::system.l2.cpu_side      5822592                       # Cumulative packet size per connected master and slave (bytes)
system.tol2bus.pkt_size::total                5890304                       # Cumulative packet size per connected master and slave (bytes)
system.tol2bus.snoops                           29890                       # Total snoops (count)
system.tol2bus.snoopTraffic                   1421312                       # Total snoop traffic (bytes)
system.tol2bus.snoop_fanout::samples            87073                       # Request fanout histogram
system.tol2bus.snoop_fanout::mean            0.033673                       # Request fanout histogram
system.tol2bus.snoop_fanout::stdev           0.180387                       # Request fanout histogram
system.tol2bus.snoop_fanout::underflows             0      0.00%      0.00% # Request fanout histogram
system.tol2bus.snoop_fanout::0                  84141     96.63%     96.63% # Request fanout histogram
system.tol2bus.snoop_fanout::1                   2932      3.37%    100.00% # Request fanout histogram
system.tol2bus.snoop_fanout::2                      0      0.00%    100.00% # Request fanout histogram
system.tol2bus.snoop_fanout::3                      0      0.00%    100.00% # Request fanout histogram
system.tol2bus.snoop_fanout::4                      0      0.00%    100.00% # Request fanout histogram
system.tol2bus.snoop_fanout::overflows              0      0.00%    100.00% # Request fanout histogram
system.tol2bus.snoop_fanout::min_value              0                       # Request fanout histogram
system.tol2bus.snoop_fanout::max_value              1                       # Request fanout histogram
system.tol2bus.snoop_fanout::total              87073                       # Request fanout histogram
system.tol2bus.reqLayer0.occupancy           96254000                       # Layer occupancy (ticks)
system.tol2bus.reqLayer0.utilization              0.1                       # Layer utilization (%)
system.tol2bus.respLayer0.occupancy           1132500                       # Layer occupancy (ticks)
system.tol2bus.respLayer0.utilization             0.0                       # Layer utilization (%)
system.tol2bus.respLayer1.occupancy          75242000                       # Layer occupancy (ticks)
system.tol2bus.respLayer1.utilization             0.1                       # Layer utilization (%)
system.tol3bus.snoop_filter.tot_requests        49541                       # Total number of requests made to the snoop filter.
system.tol3bus.snoop_filter.hit_single_requests        23549                       # Number of requests hitting in the snoop filter with a single holder of the requested data.
system.tol3bus.snoop_filter.hit_multi_requests            0                       # Number of requests hitting in the snoop filter with multiple (>1) holders of the requested data.
system.tol3bus.snoop_filter.tot_snoops           5764                       # Total number of snoops made to the snoop filter.
system.tol3bus.snoop_filter.hit_single_snoops         5764                       # Number of snoops hitting in the snoop filter with a single holder of the requested data.
system.tol3bus.snoop_filter.hit_multi_snoops            0                       # Number of snoops hitting in the snoop filter with multiple (>1) holders of the requested data.
system.tol3bus.pwrStateResidencyTicks::UNDEFINED  91701357000                       # Cumulative time (in ticks) in various power states
system.tol3bus.trans_dist::ReadResp             19176                       # Transaction distribution
system.tol3bus.trans_dist::WritebackDirty        31774                       # Transaction distribution
system.tol3bus.trans_dist::CleanEvict            7715                       # Transaction distribution
system.tol3bus.trans_dist::ReadExReq             6816                       # Transaction distribution
system.tol3bus.trans_dist::ReadExResp            6816                       # Transaction distribution
system.tol3bus.trans_dist::ReadSharedReq        19176                       # Transaction distribution
system.tol3bus.pkt_count_system.l2.mem_side::system.l3.cpu_side        75533                       # Packet count per connected master and slave (bytes)
system.tol3bus.pkt_size_system.l2.mem_side::system.l3.cpu_side      3084800                       # Cumulative packet size per connected master and slave (bytes)
system.tol3bus.snoops                           15940                       # Total snoops (count)
system.tol3bus.snoopTraffic                    612224                       # Total snoop traffic (bytes)
system.tol3bus.snoop_fanout::samples            41932                       # Request fanout histogram
system.tol3bus.snoop_fanout::mean            0.137461                       # Request fanout histogram
system.tol3bus.snoop_fanout::stdev           0.344337                       # Request fanout histogram
system.tol3bus.snoop_fanout::underflows             0      0.00%      0.00% # Request fanout histogram
system.tol3bus.snoop_fanout::0                  36168     86.25%     86.25% # Request fanout histogram
system.tol3bus.snoop_fanout::1                   5764     13.75%    100.00% # Request fanout histogram
system.tol3bus.snoop_fanout::overflows              0      0.00%    100.00% # Request fanout histogram
system.tol3bus.snoop_fanout::min_value              0                       # Request fanout histogram
system.tol3bus.snoop_fanout::max_value              1                       # Request fanout histogram
system.tol3bus.snoop_fanout::total              41932                       # Request fanout histogram
system.tol3bus.reqLayer0.occupancy           46978500                       # Layer occupancy (ticks)
system.tol3bus.reqLayer0.utilization              0.1                       # Layer utilization (%)
system.tol3bus.respLayer0.occupancy          38988000                       # Layer occupancy (ticks)
system.tol3bus.respLayer0.utilization             0.0                       # Layer utilization (%)

---------- End Simulation Statistics   ----------
